   0	0
   1	0
   2	0
   3	0
   4	0
   5	0
   6	0
   7	0
   8	0
   9	0
   A	0
   B	0
   C	0
   D	0
   E	0
   F	0
  10	0
  11	0
  12	0
  13	0
  14	0
  15	0
  16	0
  17	0
  18	0
  19	0
  1A	0
  1B	0
  1C	0
  1D	0
  1E	0
  1F	0
  20	0
  21	0
  22	0
  23	0
  24	0
